nrt/data/EMT/EmtNetworkTapChanger/tap.iidm
<?xml version="1.0" encoding="UTF-8"?>
<iidm:network xmlns:iidm="http://www.powsybl.org/schema/iidm/1_4" id="emttap" caseDate="2024-01-01T00:00:00.000+00:00" forecastDistance="0" sourceFormat="manual">
  <iidm:substation id="S0" country="FR">
    <iidm:voltageLevel id="VL0" nominalV="1.0" topologyKind="BUS_BREAKER">
      <iidm:busBreakerTopology><iidm:bus id="B0" v="1.0" angle="0.0"/></iidm:busBreakerTopology>
      <iidm:generator id="G0" energySource="OTHER" minP="-999.0" maxP="999.0" voltageRegulatorOn="true" targetP="0.0" targetV="1.0" targetQ="0.0" bus="B0" connectableBus="B0" p="0.0" q="0.0">
        <iidm:minMaxReactiveLimits minQ="-999.0" maxQ="999.0"/>
      </iidm:generator>
    </iidm:voltageLevel>
    <iidm:voltageLevel id="VL1" nominalV="1.0" topologyKind="BUS_BREAKER">
      <iidm:busBreakerTopology><iidm:bus id="B1" v="0.60" angle="0.0"/></iidm:busBreakerTopology>
      <iidm:load id="L1" loadType="UNDEFINED" p0="20.0" q0="0.0" p="20.0" q="0.0" bus="B1" connectableBus="B1"/>
    </iidm:voltageLevel>
    <iidm:twoWindingsTransformer id="TFO" r="0.00005" x="0.001005309649148734" g="0.0" b="0.0" ratedU1="2.0" ratedU2="1.0" bus1="B0" connectableBus1="B0" voltageLevelId1="VL0" bus2="B1" connectableBus2="B1" voltageLevelId2="VL1" p1="0.0" q1="0.0" p2="0.0" q2="0.0">
      <iidm:ratioTapChanger lowTapPosition="0" tapPosition="4" targetDeadband="0.0" loadTapChangingCapabilities="true" regulating="true" targetV="0.45">
        <iidm:terminalRef id="TFO" side="TWO"/>
        <iidm:step r="0.0" x="0.0" g="0.0" b="0.0" rho="0.40"/>
        <iidm:step r="0.0" x="0.0" g="0.0" b="0.0" rho="0.45"/>
        <iidm:step r="0.0" x="0.0" g="0.0" b="0.0" rho="0.50"/>
        <iidm:step r="0.0" x="0.0" g="0.0" b="0.0" rho="0.55"/>
        <iidm:step r="0.0" x="0.0" g="0.0" b="0.0" rho="0.60"/>
      </iidm:ratioTapChanger>
    </iidm:twoWindingsTransformer>
  </iidm:substation>
</iidm:network>
